Version 4
SHEET 1 1024 764
WIRE 160 80 80 80
WIRE 304 80 256 80
WIRE 336 80 304 80
WIRE 464 80 432 80
WIRE 512 80 464 80
WIRE 672 80 608 80
WIRE 832 80 768 80
WIRE -16 112 -32 112
WIRE 624 112 608 112
WIRE 784 112 768 112
WIRE 256 208 256 192
WIRE 16 240 16 224
WIRE 304 240 304 80
WIRE 208 256 112 256
WIRE 528 256 528 240
WIRE 112 272 112 256
WIRE 112 272 64 272
WIRE 464 272 464 80
WIRE 464 272 304 272
WIRE -32 288 -32 112
WIRE 624 288 624 112
WIRE 624 288 576 288
WIRE 96 304 64 304
WIRE 480 304 464 304
WIRE 256 320 256 304
WIRE 784 320 784 112
WIRE 784 320 576 320
WIRE 16 352 16 336
WIRE 256 352 256 336
WIRE 528 368 528 352
WIRE 464 384 464 304
WIRE 464 384 304 384
WIRE 96 400 96 304
WIRE 208 400 96 400
WIRE 400 416 304 416
WIRE 400 432 400 416
WIRE 256 464 256 448
FLAG 736 -16 0
FLAG 800 -16 0
FLAG 736 -96 COM
FLAG 32 64 COM
FLAG 208 64 COM
FLAG 384 64 COM
FLAG 32 128 0
FLAG 208 128 0
FLAG 384 128 0
FLAG -16 80 CLK
IOPIN -16 80 In
FLAG 800 -96 CLK
IOPIN 800 -96 Out
FLAG 560 128 0
FLAG 720 128 0
FLAG 672 112 COM
FLAG 560 64 COM
FLAG 720 64 COM
FLAG 512 112 COM
FLAG 336 112 COM
FLAG 160 112 COM
FLAG 832 80 OUT
IOPIN 832 80 Out
FLAG 864 -16 0
FLAG 864 -96 MODE
IOPIN 864 -96 Out
FLAG 256 192 COM
FLAG 16 224 COM
FLAG 528 240 COM
FLAG 256 336 COM
FLAG 16 352 0
FLAG 256 320 0
FLAG 528 368 0
FLAG 256 464 0
FLAG 400 432 MODE
IOPIN 400 432 In
SYMBOL TSPC_33GHz_2by3PSC 32 96 R0
SYMATTR InstName X1
SYMBOL TSPC_33GHz_2by3PSC 208 96 R0
SYMATTR InstName X2
SYMBOL TSPC_33GHz_2by3PSC 384 96 R0
SYMATTR InstName X3
SYMBOL voltage 736 -112 R0
WINDOW 0 -8 -16 Left 2
WINDOW 3 -7 -4 Left 2
SYMATTR InstName V1
SYMATTR Value .7
SYMBOL voltage 800 -112 R0
WINDOW 0 -8 -15 Left 2
WINDOW 3 -42 -1 Left 2
WINDOW 123 0 0 Left 0
WINDOW 39 0 0 Left 0
SYMATTR InstName V2
SYMATTR Value PULSE(0 .7 0 0 0 {0.5/f} {1/f})
SYMBOL TSPC_33GHz_2by3PSC 560 96 R0
SYMATTR InstName X4
SYMBOL TSPC_33GHz_2by3PSC 720 96 R0
SYMATTR InstName X5
SYMBOL voltage 864 -112 R0
SYMATTR InstName V3
SYMATTR Value 0.7
SYMBOL LOGIC_OR_cCMOS 544 304 M0
SYMATTR InstName X6
SYMBOL LOGIC_OR_cCMOS 272 256 M0
SYMATTR InstName X7
SYMBOL LOGIC_OR_cCMOS 32 288 M0
SYMATTR InstName X8
SYMBOL LOGIC_OR_cCMOS 272 400 M0
SYMATTR InstName X9
TEXT -352 440 Left 2 !.inc ../ptm16nmHP.lib
TEXT -352 408 Left 2 !.tran {256/f} uic
TEXT -352 424 Left 2 ;.temp 0
TEXT -352 376 Left 2 !.param f 32giga
TEXT -352 456 Left 2 !.meas P AVG V(COM)*I(V1)*1E+06
TEXT -352 392 Left 2 ;.step oct param f 512mega 256g 6
